Midwest/Base_MIOHIN_76GW.m
% Case saved by PowerWorld Simulator, version 22, build date March 24, 2022
function mpc = Base_MIOHIN_76GW
mpc.version = '2';
mpc.baseMVA =  100.00;

%% bus data 
mpc.bus = [
20401	2	0.00	0.00	0.00	0.00	9	1.0200000	-39.844366	345.00	1	1.100	0.900	130.21	0.00	0	0
20402	2	0.00	0.00	0.00	0.00	9	1.0200000	-38.148979	765.00	1	1.100	0.900	131.92	0.00	0	0
20403	2	0.00	0.00	0.00	0.00	9	1.0169992	-53.843393	345.00	1	1.100	0.900	256.95	1.74	0	0
20404	2	0.00	0.00	0.00	0.00	9	1.0200000	-39.434437	765.00	1	1.100	0.900	131.44	0.00	0	0
20405	2	0.00	0.00	0.00	0.00	9	1.0200000	-41.556886	345.00	1	1.100	0.900	156.79	0.00	0	0
20406	2	0.00	0.00	0.00	0.00	9	1.0200000	-38.249279	765.00	1	1.100	0.900	131.16	0.00	0	0
20407	2	0.00	0.00	0.00	0.00	9	1.0200000	-39.430951	345.00	1	1.100	0.900	131.19	0.00	0	0
20408	2	0.00	0.00	0.00	0.00	9	1.0200000	-40.199767	345.00	1	1.100	0.900	122.89	0.00	0	0
20409	2	0.00	0.00	0.00	0.00	9	1.0200000	-42.038289	345.00	1	1.100	0.900	133.40	0.00	0	0
20410	2	0.00	0.00	0.00	0.00	9	1.0131502	-51.031368	345.00	1	1.100	0.900	183.71	4.18	0	0
20411	2	0.00	0.00	0.00	0.00	9	1.0200000	-54.116927	345.00	1	1.100	0.900	253.30	0.00	0	0
20412	2	0.00	0.00	0.00	0.00	9	1.0200000	-54.765856	345.00	1	1.100	0.900	248.28	0.00	0	0
20413	2	0.00	0.00	0.00	0.00	9	1.0200000	-41.487711	765.00	1	1.100	0.900	117.91	0.00	0	0
20414	2	0.00	0.00	0.00	0.00	9	1.0031404	-48.650587	345.00	1	1.100	0.900	133.97	2.37	0	0
20415	2	0.00	0.00	0.00	0.00	9	1.0200000	-39.188830	345.00	1	1.100	0.900	130.68	0.00	0	0
20416	2	0.00	0.00	0.00	0.00	9	1.0073892	-56.620862	138.00	1	1.100	0.900	252.09	0.85	0	0
20417	2	0.00	0.00	0.00	0.00	9	1.0200469	-41.468749	765.00	1	1.100	0.900	117.98	0.03	0	0
20418	2	0.00	0.00	0.00	0.00	9	1.0199587	-54.780928	345.00	1	1.100	0.900	246.81	-0.25	0	0
20419	2	0.00	0.00	0.00	0.00	9	1.0200000	-43.281226	345.00	1	1.100	0.900	126.21	0.00	0	0
20420	1	0.00	0.00	0.00	0.00	9	1.0182304	-48.732570	345.00	1	1.100	0.900	191.99	0.75	0	0
20421	2	0.00	0.00	0.00	0.00	9	1.0200000	-51.911243	138.00	1	1.100	0.900	230.16	0.00	0	0
20422	2	0.00	0.00	0.00	0.00	9	1.0195544	-54.766762	345.00	1	1.100	0.900	249.24	0.21	0	0
20423	2	0.00	0.00	0.00	0.00	9	1.0200000	-39.849376	345.00	1	1.100	0.900	131.11	0.00	0	0
20424	1	0.00	0.00	0.00	0.00	9	1.0190885	-39.878210	345.00	1	1.100	0.900	130.91	0.01	0	0
20425	2	0.00	0.00	0.00	0.00	9	1.0200000	-43.124753	765.00	1	1.100	0.900	129.58	0.00	0	0
20426	1	0.00	0.00	0.00	0.00	9	1.0156867	-49.776178	345.00	1	1.100	0.900	197.24	1.76	0	0
20427	1	0.00	0.00	0.00	0.00	9	0.9801531	-55.083823	345.00	1	1.100	0.900	156.64	7.88	0	0
20428	2	0.00	0.00	0.00	0.00	9	1.0200000	-39.160367	345.00	1	1.100	0.900	130.67	0.00	0	0
20429	2	0.00	0.00	0.00	0.00	9	1.0158173	-49.649492	138.00	1	1.100	0.900	181.80	0.72	0	0
20430	2	0.00	0.00	0.00	0.00	9	1.0200000	-47.474277	345.00	1	1.100	0.900	185.69	0.00	0	0
20431	2	0.00	0.00	0.00	0.00	9	1.0200000	-49.189908	138.00	1	1.100	0.900	184.56	0.00	0	0
20432	2	0.00	0.00	0.00	0.00	9	1.0200000	-49.061114	138.00	1	1.100	0.900	185.96	0.00	0	0
20433	2	0.00	0.00	0.00	0.00	9	0.9987897	-56.904682	138.00	1	1.100	0.900	28.84	-32.89	0	0
20434	2	0.00	0.00	0.00	0.00	9	0.9990663	-56.824766	138.00	1	1.100	0.900	28.97	-32.89	0	0
20435	2	0.00	0.00	0.00	0.00	9	1.0041719	-57.335444	138.00	1	1.100	0.900	251.90	1.02	0	0
20436	2	0.00	0.00	0.00	0.00	9	1.0200000	-41.671489	345.00	1	1.100	0.900	156.81	0.00	0	0
20437	2	0.00	0.00	0.00	0.00	9	0.9987918	-48.967947	345.00	1	1.100	0.900	135.30	2.87	0	0
20438	2	0.00	0.00	0.00	0.00	9	1.0183774	-43.732621	345.00	1	1.100	0.900	130.51	0.60	0	0
20439	2	0.00	0.00	0.00	0.00	9	1.0070854	-56.088220	138.00	1	1.100	0.900	252.56	0.11	0	0
20440	2	0.00	0.00	0.00	0.00	9	0.9955095	-51.439913	345.00	1	1.100	0.900	140.45	4.11	0	0
20441	1	0.00	0.00	0.00	0.00	9	1.0171363	-43.150527	345.00	1	1.100	0.900	132.57	0.28	0	0
20442	2	0.00	0.00	0.00	0.00	9	0.9886886	-56.754345	345.00	1	1.100	0.900	135.33	5.19	0	0
20443	1	0.00	0.00	0.00	0.00	9	1.0161040	-40.031029	345.00	1	1.100	0.900	131.07	0.02	0	0
20444	2	0.00	0.00	0.00	0.00	9	1.0109842	-55.598697	138.00	1	1.100	0.900	252.06	-0.09	0	0
20445	2	0.00	0.00	0.00	0.00	9	1.0113246	-48.396502	138.00	1	1.100	0.900	132.88	1.22	0	0
20446	2	0.00	0.00	0.00	0.00	9	0.9776827	-51.922824	138.00	1	1.100	0.900	126.88	2.12	0	0
20447	1	0.00	0.00	0.00	0.00	9	0.9890337	-52.164081	345.00	1	1.100	0.900	126.32	2.75	0	0
20448	2	0.00	0.00	0.00	0.00	9	0.9822619	-54.228682	138.00	1	1.100	0.900	138.71	3.99	0	0
20449	2	0.00	0.00	0.00	0.00	9	1.0200000	-40.940566	138.00	1	1.100	0.900	131.46	0.00	0	0
20450	2	0.00	0.00	0.00	0.00	9	0.9873738	-52.682686	138.00	1	1.100	0.900	125.35	2.43	0	0
20451	2	0.00	0.00	0.00	0.00	9	0.9906466	-51.070544	69.00	1	1.100	0.900	167.72	2.99	0	0
20452	2	0.00	0.00	0.00	0.00	9	0.9844407	-54.864303	69.00	1	1.100	0.900	167.86	9.76	0	0
20453	2	0.00	0.00	0.00	0.00	9	0.9819109	-49.754614	69.00	1	1.100	0.900	153.77	0.84	0	0
20454	2	0.00	0.00	0.00	0.00	9	0.9836477	-51.172769	69.00	1	1.100	0.900	134.60	2.68	0	0
20455	2	0.00	0.00	0.00	0.00	9	0.9983085	-42.562158	138.00	1	1.100	0.900	131.23	0.13	0	0
20456	1	0.00	0.00	0.00	0.00	9	0.9885160	-54.446773	138.00	1	1.100	0.900	160.05	8.66	0	0
20457	2	0.00	0.00	0.00	0.00	9	1.0200000	-41.660445	138.00	1	1.100	0.900	119.72	0.00	0	0
20458	2	0.00	0.00	0.00	0.00	17	1.0200000	-31.773028	765.00	1	1.100	0.900	56.88	0.00	0	0
20459	2	0.00	0.00	0.00	0.00	17	1.0200000	-42.017845	765.00	1	1.100	0.900	5.30	0.00	0	0
20460	2	0.00	0.00	0.00	0.00	17	1.0200000	-48.241577	345.00	1	1.100	0.900	32.67	0.00	0	0
20461	2	0.00	0.00	0.00	0.00	17	1.0200000	-38.611754	765.00	1	1.100	0.900	77.94	0.00	0	0
20462	2	0.00	0.00	0.00	0.00	17	1.0200000	-25.135093	345.00	1	1.100	0.900	60.29	0.00	0	0
20463	2	0.00	0.00	0.00	0.00	17	1.0200000	-42.982101	345.00	1	1.100	0.900	74.01	0.00	0	0
20464	2	0.00	0.00	0.00	0.00	17	1.0200000	-39.987134	345.00	1	1.100	0.900	58.14	0.00	0	0
20465	2	0.00	0.00	0.00	0.00	17	1.0200000	-48.034590	345.00	1	1.100	0.900	34.93	0.00	0	0
20466	2	0.00	0.00	0.00	0.00	17	1.0200000	-35.331832	138.00	1	1.100	0.900	67.57	0.00	0	0
20467	2	0.00	0.00	0.00	0.00	17	1.0200000	-41.274700	345.00	1	1.100	0.900	57.87	0.00	0	0
20468	2	0.00	0.00	0.00	0.00	17	1.0191707	-42.967446	345.00	1	1.100	0.900	74.01	-0.11	0	0
20469	2	0.00	0.00	0.00	0.00	17	1.0200000	-34.086080	345.00	1	1.100	0.900	61.75	0.00	0	0
20470	2	0.00	0.00	0.00	0.00	17	0.9911626	-42.694299	138.00	1	1.100	0.900	70.70	-0.69	0	0
20471	2	0.00	0.00	0.00	0.00	17	1.0200000	-29.630541	345.00	1	1.100	0.900	64.59	0.00	0	0
20472	2	0.00	0.00	0.00	0.00	17	0.9941103	-42.066961	138.00	1	1.100	0.900	63.47	1.68	0	0
20473	2	0.00	0.00	0.00	0.00	17	1.0200000	-29.553800	345.00	1	1.100	0.900	64.64	0.00	0	0
20474	1	0.00	0.00	0.00	0.00	17	1.0053683	-42.607713	345.00	1	1.100	0.900	75.25	-0.08	0	0
20475	2	0.00	0.00	0.00	0.00	17	1.0200000	-32.252596	138.00	1	1.100	0.900	70.62	0.00	0	0
20476	2	0.00	0.00	0.00	0.00	17	1.0155641	-44.319659	345.00	1	1.100	0.900	72.45	-1.72	0	0
20477	2	0.00	0.00	0.00	0.00	17	1.0129700	-49.116656	345.00	1	1.100	0.900	44.69	-8.28	0	0
20478	1	0.00	0.00	0.00	0.00	17	1.0426666	-30.372941	765.00	1	1.100	0.900	57.14	-0.01	0	0
20479	2	0.00	0.00	0.00	0.00	17	1.0200000	-39.097619	345.00	1	1.100	0.900	76.69	0.00	0	0
20480	2	0.00	0.00	0.00	0.00	17	1.0200000	-32.665188	345.00	1	1.100	0.900	71.32	0.00	0	0
20481	2	0.00	0.00	0.00	0.00	17	1.0080933	-47.498455	138.00	1	1.100	0.900	47.34	-11.67	0	0
20482	1	0.00	0.00	0.00	0.00	17	1.0183871	-25.570627	345.00	1	1.100	0.900	60.28	-0.01	0	0
20483	2	0.00	0.00	0.00	0.00	17	1.0200000	-28.172877	138.00	1	1.100	0.900	62.40	0.00	0	0
20484	1	0.00	0.00	0.00	0.00	17	1.0048188	-38.057407	345.00	1	1.100	0.900	58.52	-0.04	0	0
20485	2	0.00	0.00	0.00	0.00	17	1.0200000	-38.091397	138.00	1	1.100	0.900	75.37	0.00	0	0
20486	1	0.00	0.00	0.00	0.00	17	0.9855535	-51.285101	345.00	1	1.100	0.900	61.10	7.59	0	0
20487	2	0.00	0.00	0.00	0.00	17	1.0200000	-32.729428	138.00	1	1.100	0.900	70.48	0.00	0	0
20488	1	0.00	0.00	0.00	0.00	17	0.9963513	-44.103169	138.00	1	1.100	0.900	74.64	-0.33	0	0
20489	2	0.00	0.00	0.00	0.00	17	1.0118751	-47.836034	138.00	1	1.100	0.900	62.36	-6.57	0	0
20490	2	0.00	0.00	0.00	0.00	17	0.9964438	-43.560746	138.00	1	1.100	0.900	74.96	-0.26	0	0
20491	1	0.00	0.00	0.00	0.00	17	0.9745110	-50.066780	138.00	1	1.100	0.900	65.75	-4.85	0	0
20492	1	0.00	0.00	0.00	0.00	17	0.9834093	-41.871349	138.00	1	1.100	0.900	64.01	0.59	0	0
20493	2	0.00	0.00	0.00	0.00	17	0.9949354	-32.894285	69.00	1	1.100	0.900	59.85	0.24	0	0
20494	2	0.00	0.00	0.00	0.00	17	1.0200000	-47.789057	138.00	1	1.100	0.900	78.46	0.00	0	0
20495	1	0.00	0.00	0.00	0.00	17	0.9968175	-31.661437	138.00	1	1.100	0.900	59.98	0.01	0	0
20496	2	0.00	0.00	0.00	0.00	17	0.9812580	-53.800317	69.00	1	1.100	0.900	86.08	6.27	0	0
20497	2	0.00	0.00	0.00	0.00	17	0.9817383	-36.454741	69.00	1	1.100	0.900	66.21	-0.12	0	0
20498	2	0.00	0.00	0.00	0.00	17	1.0123431	-32.253112	69.00	1	1.100	0.900	62.96	0.39	0	0
20499	1	0.00	0.00	0.00	0.00	17	0.9733102	-50.379273	138.00	1	1.100	0.900	68.00	-4.85	0	0
20500	2	0.00	0.00	0.00	0.00	17	1.0200000	-36.577135	345.00	1	1.100	0.900	62.97	0.00	0	0
20501	1	0.00	0.00	0.00	0.00	17	0.9975878	-31.154723	138.00	1	1.100	0.900	60.05	-0.03	0	0
20502	2	0.00	0.00	0.00	0.00	17	1.0200000	-28.154587	138.00	1	1.100	0.900	62.36	0.00	0	0
20503	1	0.00	0.00	0.00	0.00	17	1.0161079	-29.694105	138.00	1	1.100	0.900	59.29	0.08	0	0
20504	2	0.00	0.00	0.00	0.00	17	0.9986736	-37.408508	69.00	1	1.100	0.900	67.25	0.17	0	0
20505	2	0.00	0.00	0.00	0.00	17	1.0162837	-42.101684	345.00	1	1.100	0.900	57.37	0.79	0	0
20506	2	0.00	0.00	0.00	0.00	17	0.9950092	-33.079424	69.00	1	1.100	0.900	60.69	0.16	0	0
20507	2	0.00	0.00	0.00	0.00	17	0.9824659	-51.559174	138.00	1	1.100	0.900	62.88	8.50	0	0
20508	1	0.00	0.00	0.00	0.00	17	0.9794976	-43.759648	138.00	1	1.100	0.900	58.79	0.51	0	0
20509	2	0.00	0.00	0.00	0.00	17	0.9958767	-36.155820	69.00	1	1.100	0.900	60.20	0.09	0	0
20510	2	0.00	0.00	0.00	0.00	17	0.9841715	-45.715120	69.00	1	1.100	0.900	69.77	-2.79	0	0
20511	1	0.00	0.00	0.00	0.00	17	1.0384525	-30.727048	345.00	1	1.100	0.900	57.14	-0.05	0	0
20512	2	0.00	0.00	0.00	0.00	17	1.0041770	-34.344294	69.00	1	1.100	0.900	55.66	-0.20	0	0
20513	2	0.00	0.00	0.00	0.00	17	1.0200000	-28.711341	69.00	1	1.100	0.900	63.52	0.00	0	0
20514	2	0.00	0.00	0.00	0.00	17	1.0072748	-31.923186	69.00	1	1.100	0.900	60.48	0.17	0	0
20515	2	0.00	0.00	0.00	0.00	17	1.0322465	-30.379074	69.00	1	1.100	0.900	57.33	-0.09	0	0
20516	2	0.00	0.00	0.00	0.00	17	1.0097357	-42.503611	138.00	1	1.100	0.900	57.66	0.74	0	0
20517	2	0.00	0.00	0.00	0.00	17	1.0200000	-39.206030	69.00	1	1.100	0.900	76.61	0.00	0	0
20518	2	0.00	0.00	0.00	0.00	17	1.0200000	-28.452949	69.00	1	1.100	0.900	59.74	0.00	0	0
20519	1	0.00	0.00	0.00	0.00	17	1.0145032	-28.732092	138.00	1	1.100	0.900	62.19	-0.07	0	0
20520	2	0.00	0.00	0.00	0.00	17	1.0195151	-29.904870	69.00	1	1.100	0.900	57.28	-0.11	0	0
20521	1	0.00	0.00	0.00	0.00	17	1.0013909	-44.972810	138.00	1	1.100	0.900	58.44	2.48	0	0
20522	2	0.00	0.00	0.00	0.00	17	1.0200000	-30.173639	69.00	1	1.100	0.900	57.36	0.00	0	0
20523	2	0.00	0.00	0.00	0.00	17	1.0063658	-43.448978	69.00	1	1.100	0.900	57.68	0.60	0	0
20524	2	0.00	0.00	0.00	0.00	17	1.0104298	-42.359769	138.00	1	1.100	0.900	57.76	0.74	0	0
20525	1	0.00	0.00	0.00	0.00	17	0.9780575	-49.498256	138.00	1	1.100	0.900	59.75	6.31	0	0
20526	1	0.00	0.00	0.00	0.00	17	1.0372911	-30.641080	138.00	1	1.100	0.900	57.13	-0.06	0	0
20527	2	0.00	0.00	0.00	0.00	17	1.0033508	-29.826212	138.00	1	1.100	0.900	60.09	-0.01	0	0
20528	2	0.00	0.00	0.00	0.00	17	0.9886863	-32.505178	69.00	1	1.100	0.900	59.39	0.26	0	0
20529	2	0.00	0.00	0.00	0.00	17	1.0200000	-30.603675	69.00	1	1.100	0.900	57.87	0.00	0	0
20530	2	0.00	0.00	0.00	0.00	17	1.0146753	-31.566455	69.00	1	1.100	0.900	62.63	0.42	0	0
20531	2	0.00	0.00	0.00	0.00	27	1.0166360	-38.684312	765.00	1	1.100	0.900	111.93	0.33	0	0
20532	3	0.00	0.00	0.00	0.00	27	1.0200000	-49.603228	345.00	1	1.100	0.900	95.83	0.00	0	0
20533	2	0.00	0.00	0.00	0.00	27	1.0200000	-36.708177	765.00	1	1.100	0.900	106.09	0.00	0	0
20534	2	0.00	0.00	0.00	0.00	27	1.0200000	-49.265733	345.00	1	1.100	0.900	97.55	0.00	0	0
20535	2	0.00	0.00	0.00	0.00	27	1.0200000	-39.358407	345.00	1	1.100	0.900	110.80	0.00	0	0
20536	2	0.00	0.00	0.00	0.00	27	1.0200000	-40.178372	345.00	1	1.100	0.900	100.26	0.00	0	0
20537	2	0.00	0.00	0.00	0.00	27	1.0200000	-36.070670	765.00	1	1.100	0.900	110.92	0.00	0	0
20538	2	0.00	0.00	0.00	0.00	27	1.0200000	-52.828148	345.00	1	1.100	0.900	123.58	0.00	0	0
20539	1	0.00	0.00	0.00	0.00	27	1.0178081	-50.056773	345.00	1	1.100	0.900	95.85	0.00	0	0
20540	2	0.00	0.00	0.00	0.00	27	1.0026319	-55.945649	138.00	1	1.100	0.900	95.49	0.46	0	0
20541	2	0.00	0.00	0.00	0.00	27	1.0200000	-39.085997	765.00	1	1.100	0.900	102.49	0.00	0	0
20542	2	0.00	0.00	0.00	0.00	27	1.0200000	-36.577931	345.00	1	1.100	0.900	105.69	0.00	0	0
20543	2	0.00	0.00	0.00	0.00	27	1.0200000	-39.129102	345.00	1	1.100	0.900	102.77	0.00	0	0
20544	2	0.00	0.00	0.00	0.00	27	1.0033403	-54.198422	345.00	1	1.100	0.900	123.64	4.52	0	0
20545	2	0.00	0.00	0.00	0.00	27	1.0200000	-38.470985	345.00	1	1.100	0.900	105.74	0.00	0	0
20546	2	0.00	0.00	0.00	0.00	27	1.0200000	-43.123979	345.00	1	1.100	0.900	99.65	0.00	0	0
20547	2	0.00	0.00	0.00	0.00	27	1.0200000	-38.868850	345.00	1	1.100	0.900	102.97	0.00	0	0
20548	2	0.00	0.00	0.00	0.00	27	1.0137783	-50.872507	345.00	1	1.100	0.900	107.72	4.58	0	0
20549	2	0.00	0.00	0.00	0.00	27	1.0200000	-36.234260	765.00	1	1.100	0.900	109.80	0.00	0	0
20550	2	0.00	0.00	0.00	0.00	27	1.0200000	-46.601324	345.00	1	1.100	0.900	102.27	0.00	0	0
20551	2	0.00	0.00	0.00	0.00	27	0.9967522	-51.736775	138.00	1	1.100	0.900	135.70	-2.92	0	0
20552	2	0.00	0.00	0.00	0.00	27	1.0028583	-53.246319	138.00	1	1.100	0.900	98.41	-0.11	0	0
20553	2	0.00	0.00	0.00	0.00	27	0.9954198	-49.743447	138.00	1	1.100	0.900	115.48	0.95	0	0
20554	2	0.00	0.00	0.00	0.00	27	1.0200000	-51.320003	345.00	1	1.100	0.900	95.71	0.00	0	0
20555	2	0.00	0.00	0.00	0.00	27	1.0185091	-43.031995	345.00	1	1.100	0.900	114.36	0.69	0	0
20556	2	0.00	0.00	0.00	0.00	27	0.9829904	-50.836544	138.00	1	1.100	0.900	107.38	0.38	0	0
20557	2	0.00	0.00	0.00	0.00	27	1.0200000	-39.597065	345.00	1	1.100	0.900	101.01	0.00	0	0
20558	1	0.00	0.00	0.00	0.00	27	1.0026698	-48.494832	345.00	1	1.100	0.900	116.74	0.94	0	0
20559	2	0.00	0.00	0.00	0.00	27	0.9918672	-49.343476	345.00	1	1.100	0.900	108.01	0.43	0	0
20560	2	0.00	0.00	0.00	0.00	27	0.9920903	-49.979898	345.00	1	1.100	0.900	115.33	1.03	0	0
20561	2	0.00	0.00	0.00	0.00	27	1.0078230	-48.134259	345.00	1	1.100	0.900	117.07	0.96	0	0
20562	2	0.00	0.00	0.00	0.00	27	1.0200000	-54.154773	345.00	1	1.100	0.900	96.55	0.00	0	0
20563	2	0.00	0.00	0.00	0.00	27	1.0200000	-53.821164	345.00	1	1.100	0.900	97.19	0.00	0	0
20564	2	0.00	0.00	0.00	0.00	27	0.9922118	-49.971596	345.00	1	1.100	0.900	115.34	1.03	0	0
20565	2	0.00	0.00	0.00	0.00	27	0.9993866	-49.260154	345.00	1	1.100	0.900	116.18	1.00	0	0
20566	2	0.00	0.00	0.00	0.00	27	0.9939387	-56.439934	138.00	1	1.100	0.900	95.46	0.53	0	0
20567	2	0.00	0.00	0.00	0.00	27	1.0166254	-38.317826	345.00	1	1.100	0.900	109.64	0.01	0	0
20568	2	0.00	0.00	0.00	0.00	27	1.0189666	-43.395239	345.00	1	1.100	0.900	118.12	0.29	0	0
20569	2	0.00	0.00	0.00	0.00	27	0.9915038	-53.723101	138.00	1	1.100	0.900	121.62	2.33	0	0
20570	2	0.00	0.00	0.00	0.00	27	1.0108580	-51.563336	138.00	1	1.100	0.900	95.80	0.03	0	0
20571	2	0.00	0.00	0.00	0.00	27	0.9806651	-48.519343	69.00	1	1.100	0.900	117.01	0.57	0	0
20572	2	0.00	0.00	0.00	0.00	27	0.9926413	-58.909270	69.00	1	1.100	0.900	102.76	0.30	0	0
20573	2	0.00	0.00	0.00	0.00	27	0.9890673	-56.177321	138.00	1	1.100	0.900	123.11	1.81	0	0
20574	1	0.00	0.00	0.00	0.00	27	0.9835535	-54.575913	138.00	1	1.100	0.900	125.23	8.20	0	0
20575	2	0.00	0.00	0.00	0.00	27	0.9870578	-58.636398	69.00	1	1.100	0.900	103.22	0.24	0	0
20576	1	0.00	0.00	0.00	0.00	27	0.9946582	-54.732520	138.00	1	1.100	0.900	127.01	3.73	0	0
20577	2	0.00	0.00	0.00	0.00	27	0.9931128	-56.350769	138.00	1	1.100	0.900	95.44	0.55	0	0
20578	2	0.00	0.00	0.00	0.00	27	0.9847243	-48.911224	138.00	1	1.100	0.900	117.11	0.58	0	0
20579	2	0.00	0.00	0.00	0.00	27	0.9914029	-54.590093	69.00	1	1.100	0.900	126.41	9.36	0	0
20580	2	0.00	0.00	0.00	0.00	27	1.0200000	-41.497794	69.00	1	1.100	0.900	100.06	0.00	0	0
20581	2	0.00	0.00	0.00	0.00	27	0.9904726	-48.802136	138.00	1	1.100	0.900	115.69	0.82	0	0
20582	1	0.00	0.00	0.00	0.00	27	1.0087483	-55.619285	138.00	1	1.100	0.900	97.02	0.11	0	0
20583	1	0.00	0.00	0.00	0.00	27	0.9881636	-51.137318	138.00	1	1.100	0.900	100.77	-0.14	0	0
20584	2	0.00	0.00	0.00	0.00	27	1.0000000	-48.119662	138.00	1	1.100	0.900	117.19	0.00	0	0
20585	2	0.00	0.00	0.00	0.00	27	0.9991920	-45.516168	138.00	1	1.100	0.900	108.30	0.16	0	0
20586	1	0.00	0.00	0.00	0.00	27	0.9672070	-54.203471	138.00	1	1.100	0.900	113.41	1.23	0	0
20587	2	0.00	0.00	0.00	0.00	27	1.0128564	-50.833479	138.00	1	1.100	0.900	95.88	0.01	0	0
20588	2	0.00	0.00	0.00	0.00	27	1.0200000	-37.815951	69.00	1	1.100	0.900	104.91	0.00	0	0
20589	2	0.00	0.00	0.00	0.00	27	1.0159840	-38.630102	345.00	1	1.100	0.900	109.65	0.01	0	0
20590	2	0.00	0.00	0.00	0.00	27	0.9909430	-56.492202	138.00	1	1.100	0.900	99.45	-0.12	0	0
20591	2	0.00	0.00	0.00	0.00	27	0.9828912	-54.876607	69.00	1	1.100	0.900	98.32	-0.07	0	0
20592	2	0.00	0.00	0.00	0.00	27	0.9612421	-56.421608	69.00	1	1.100	0.900	117.05	1.95	0	0
20593	1	17.18	4.25	0.00	0.00	9	0.9692678	-58.496749	138.00	1	1.100	0.900	130.20	5.32	0	0
20594	1	84.89	19.91	0.00	0.00	9	0.9686041	-58.494508	138.00	1	1.100	0.900	130.20	5.21	0	0
20595	1	19.98	4.67	0.00	0.00	9	0.9677294	-58.624373	138.00	1	1.100	0.900	130.85	5.18	0	0
20596	1	5.39	1.26	0.00	0.00	9	0.9678926	-58.631809	138.00	1	1.100	0.900	131.44	5.18	0	0
20597	1	0.00	0.00	0.00	0.00	9	0.9686587	-58.574749	138.00	1	1.100	0.900	132.66	5.19	0	0
20598	1	0.00	0.00	0.00	0.00	9	0.9691526	-58.485124	138.00	1	1.100	0.900	131.74	5.13	0	0
20599	1	19.49	5.38	0.00	0.00	9	0.9709855	-58.288370	138.00	1	1.100	0.900	131.95	5.12	0	0
20600	1	0.00	0.00	0.00	0.00	9	0.9534817	-60.609181	138.00	1	1.100	0.900	135.86	6.26	0	0
...
];

%% generator data 
mpc.gen = [
20401	791.86	38.25	629.60	-433.30	1.0200	100.00	1	1300.00	500.00	0.00	0.00	0.00	0.00	0.00	0.00	0	0	0	0	1300.0000	0	0	0	0
20401	0.00	0.00	629.60	-433.30	1.0200	100.00	0	1300.00	500.00	0.00	0.00	0.00	0.00	0.00	0.00	0	0	0	0	1300.0000	0	0	0	0
20402	486.79	-81.17	323.50	-222.60	1.0200	100.00	1	667.90	250.00	0.00	0.00	0.00	0.00	0.00	0.00	0	0	0	0	667.9000	0	0	0	0
20402	486.79	-81.17	323.50	-222.60	1.0200	100.00	1	667.90	250.00	0.00	0.00	0.00	0.00	0.00	0.00	0	0	0	0	667.9000	0	0	0	0
20402	486.79	-81.17	323.50	-222.60	1.0200	100.00	1	667.90	250.00	0.00	0.00	0.00	0.00	0.00	0.00	0	0	0	0	667.9000	0	0	0	0
20402	476.79	-81.17	323.50	-222.60	1.0200	100.00	1	667.90	230.00	0.00	0.00	0.00	0.00	0.00	0.00	0	0	0	0	667.9000	0	0	0	0
20402	476.79	-81.17	323.50	-222.60	1.0200	100.00	1	667.90	230.00	0.00	0.00	0.00	0.00	0.00	0.00	0	0	0	0	667.9000	0	0	0	0
20403	69.36	40.20	40.20	-23.30	1.0200	100.00	1	70.00	19.95	0.00	0.00	0.00	0.00	0.00	0.00	0	0	0	0	70.0000	0	0	0	0
20403	69.36	40.20	40.20	-23.30	1.0200	100.00	1	70.00	19.95	0.00	0.00	0.00	0.00	0.00	0.00	0	0	0	0	70.0000	0	0	0	0
20403	535.10	261.50	261.50	-180.00	1.0200	100.00	1	540.00	310.00	0.00	0.00	0.00	0.00	0.00	0.00	0	0	0	0	540.0000	0	0	0	0
20404	535.10	-63.42	261.50	-180.00	1.0200	100.00	1	540.00	260.00	0.00	0.00	0.00	0.00	0.00	0.00	0	0	0	0	540.0000	0	0	0	0
20404	535.10	-63.42	261.50	-180.00	1.0200	100.00	1	540.00	260.00	0.00	0.00	0.00	0.00	0.00	0.00	0	0	0	0	540.0000	0	0	0	0
20405	111.48	38.82	54.50	-37.50	1.0200	100.00	1	112.50	55.00	0.00	0.00	0.00	0.00	0.00	0.00	0	0	0	0	112.5000	0	0	0	0
20405	526.18	38.82	257.20	-177.00	1.0200	100.00	1	531.00	300.00	0.00	0.00	0.00	0.00	0.00	0.00	0	0	0	0	531.0000	0	0	0	0
20405	526.18	38.82	257.20	-177.00	1.0200	100.00	1	531.00	230.00	0.00	0.00	0.00	0.00	0.00	0.00	0	0	0	0	531.0000	0	0	0	0
20406	664.81	-55.43	415.80	-223.60	1.0200	100.00	1	670.90	225.00	0.00	0.00	0.00	0.00	0.00	0.00	0	0	0	0	670.9000	0	0	0	0
20406	664.81	-55.43	415.80	-223.60	1.0200	100.00	1	670.90	220.00	0.00	0.00	0.00	0.00	0.00	0.00	0	0	0	0	670.9000	0	0	0	0
20406	279.04	-55.43	174.50	-93.90	1.0200	100.00	1	281.60	130.00	0.00	0.00	0.00	0.00	0.00	0.00	0	0	0	0	281.6000	0	0	0	0
20406	518.55	-55.43	324.30	-174.40	1.0200	100.00	1	523.30	225.00	0.00	0.00	0.00	0.00	0.00	0.00	0	0	0	0	523.3000	0	0	0	0
20407	29.80	32.42	54.70	-29.40	1.0200	100.00	1	88.20	10.00	0.00	0.00	0.00	0.00	0.00	0.00	0	0	0	0	88.2000	0	0	0	0
20407	29.80	32.42	54.70	-29.40	1.0200	100.00	1	88.20	10.00	0.00	0.00	0.00	0.00	0.00	0.00	0	0	0	0	88.2000	0	0	0	0
20407	179.54	32.42	128.40	-88.40	1.0200	100.00	1	265.20	120.00	0.00	0.00	0.00	0.00	0.00	0.00	0	0	0	0	265.2000	0	0	0	0
20407	179.54	32.42	128.40	-88.40	1.0200	100.00	1	265.20	120.00	0.00	0.00	0.00	0.00	0.00	0.00	0	0	0	0	265.2000	0	0	0	0
20408	215.33	35.39	146.00	-72.40	1.0200	100.00	1	217.30	163.00	0.00	0.00	0.00	0.00	0.00	0.00	0	0	0	0	217.3000	0	0	0	0
20408	215.33	35.39	146.00	-72.40	1.0200	100.00	1	217.30	163.00	0.00	0.00	0.00	0.00	0.00	0.00	0	0	0	0	217.3000	0	0	0	0
20408	215.33	35.39	146.00	-72.40	1.0200	100.00	1	217.30	163.00	0.00	0.00	0.00	0.00	0.00	0.00	0	0	0	0	217.3000	0	0	0	0
20408	215.33	35.39	146.00	-72.40	1.0200	100.00	1	217.30	163.00	0.00	0.00	0.00	0.00	0.00	0.00	0	0	0	0	217.3000	0	0	0	0
20408	215.33	35.39	146.00	-72.40	1.0200	100.00	1	217.30	163.00	0.00	0.00	0.00	0.00	0.00	0.00	0	0	0	0	217.3000	0	0	0	0
20408	215.33	35.39	146.00	-72.40	1.0200	100.00	1	217.30	163.00	0.00	0.00	0.00	0.00	0.00	0.00	0	0	0	0	217.3000	0	0	0	0
20409	201.35	26.82	125.90	-67.70	1.0200	100.00	1	203.20	110.00	0.00	0.00	0.00	0.00	0.00	0.00	0	0	0	0	203.2000	0	0	0	0
20409	201.35	26.82	125.90	-67.70	1.0200	100.00	1	203.20	110.00	0.00	0.00	0.00	0.00	0.00	0.00	0	0	0	0	203.2000	0	0	0	0
20409	211.07	26.82	132.00	-71.00	1.0200	100.00	1	213.00	110.00	0.00	0.00	0.00	0.00	0.00	0.00	0	0	0	0	213.0000	0	0	0	0
20410	199.70	96.70	96.70	-66.60	1.0200	100.00	1	199.70	1.60	0.00	0.00	0.00	0.00	0.00	0.00	0	0	0	0	0.0000	0	0	0	0
20411	188.67	118.00	118.00	-63.50	1.0200	100.00	1	190.40	100.00	0.00	0.00	0.00	0.00	0.00	0.00	0	0	0	0	190.4000	0	0	0	0
20411	37.16	23.20	23.20	-12.50	1.0200	100.00	1	37.50	20.00	0.00	0.00	0.00	0.00	0.00	0.00	0	0	0	0	37.5000	0	0	0	0
20411	409.35	186.25	256.00	-137.70	1.0200	100.00	1	413.10	150.00	0.00	0.00	0.00	0.00	0.00	0.00	0	0	0	0	413.1000	0	0	0	0
20412	180.25	99.88	112.70	-60.60	1.0200	100.00	1	181.90	92.00	0.00	0.00	0.00	0.00	0.00	0.00	0	0	0	0	181.9000	0	0	0	0
20412	180.25	99.88	112.70	-60.60	1.0200	100.00	1	181.90	92.00	0.00	0.00	0.00	0.00	0.00	0.00	0	0	0	0	181.9000	0	0	0	0
20412	211.07	99.88	103.20	-71.00	1.0200	100.00	1	213.00	25.00	0.00	0.00	0.00	0.00	0.00	0.00	0	0	0	0	213.0000	0	0	0	0
20413	172.42	-42.68	107.80	-58.00	1.0200	100.00	1	174.00	70.00	0.00	0.00	0.00	0.00	0.00	0.00	0	0	0	0	174.0000	0	0	0	0
20413	172.42	-42.68	107.80	-58.00	1.0200	100.00	1	174.00	70.00	0.00	0.00	0.00	0.00	0.00	0.00	0	0	0	0	174.0000	0	0	0	0
20413	172.42	-42.68	107.80	-58.00	1.0200	100.00	1	174.00	70.00	0.00	0.00	0.00	0.00	0.00	0.00	0	0	0	0	174.0000	0	0	0	0
20413	172.42	-42.68	107.80	-58.00	1.0200	100.00	1	174.00	70.00	0.00	0.00	0.00	0.00	0.00	0.00	0	0	0	0	174.0000	0	0	0	0
20413	265.57	-42.68	166.10	-89.30	1.0200	100.00	1	268.00	70.00	0.00	0.00	0.00	0.00	0.00	0.00	0	0	0	0	268.0000	0	0	0	0
20413	265.57	-42.68	166.10	-89.30	1.0200	100.00	1	268.00	70.00	0.00	0.00	0.00	0.00	0.00	0.00	0	0	0	0	268.0000	0	0	0	0
20414	99.09	62.00	62.00	-33.30	1.0200	100.00	1	100.00	54.00	0.00	0.00	0.00	0.00	0.00	0.00	0	0	0	0	100.0000	0	0	0	0
20414	27.80	17.65	17.65	-9.35	1.0200	100.00	1	28.05	5.85	0.00	0.00	0.00	0.00	0.00	0.00	0	0	0	0	28.0500	0	0	0	0
20414	27.80	17.65	17.65	-9.35	1.0200	100.00	1	28.05	5.85	0.00	0.00	0.00	0.00	0.00	0.00	0	0	0	0	28.0500	0	0	0	0
20414	458.80	286.90	286.90	-154.30	1.0200	100.00	1	463.00	220.00	0.00	0.00	0.00	0.00	0.00	0.00	0	0	0	0	463.0000	0	0	0	0
20414	99.09	62.00	62.00	-33.30	1.0200	100.00	1	100.00	54.00	0.00	0.00	0.00	0.00	0.00	0.00	0	0	0	0	100.0000	0	0	0	0
20414	82.25	62.30	62.30	-27.70	1.0200	100.00	1	83.00	45.00	0.00	0.00	0.00	0.00	0.00	0.00	0	0	0	0	83.0000	0	0	0	0
20414	82.25	62.30	62.30	-27.70	1.0200	100.00	1	83.00	45.00	0.00	0.00	0.00	0.00	0.00	0.00	0	0	0	0	83.0000	0	0	0	0
20414	159.54	99.80	99.80	-53.70	1.0200	100.00	1	161.00	90.00	0.00	0.00	0.00	0.00	0.00	0.00	0	0	0	0	161.0000	0	0	0	0
20414	27.80	17.65	17.65	-9.35	1.0200	100.00	1	28.05	5.85	0.00	0.00	0.00	0.00	0.00	0.00	0	0	0	0	28.0500	0	0	0	0
20414	27.80	17.65	17.65	-9.35	1.0200	100.00	1	28.05	5.85	0.00	0.00	0.00	0.00	0.00	0.00	0	0	0	0	28.0500	0	0	0	0
20414	27.80	17.65	17.65	-9.35	1.0200	100.00	1	28.05	5.85	0.00	0.00	0.00	0.00	0.00	0.00	0	0	0	0	28.0500	0	0	0	0
20414	27.80	17.65	17.65	-9.35	1.0200	100.00	1	28.05	5.85	0.00	0.00	0.00	0.00	0.00	0.00	0	0	0	0	28.0500	0	0	0	0
20415	77.40	28.09	103.20	-55.50	1.0200	100.00	1	166.60	40.00	0.00	0.00	0.00	0.00	0.00	0.00	0	0	0	0	166.6000	0	0	0	0
20415	77.40	28.09	103.20	-55.50	1.0200	100.00	1	166.60	40.00	0.00	0.00	0.00	0.00	0.00	0.00	0	0	0	0	166.6000	0	0	0	0
20415	77.40	28.09	103.20	-55.50	1.0200	100.00	1	166.60	40.00	0.00	0.00	0.00	0.00	0.00	0.00	0	0	0	0	166.6000	0	0	0	0
20415	152.51	28.09	200.20	-107.70	1.0200	100.00	1	323.00	80.00	0.00	0.00	0.00	0.00	0.00	0.00	0	0	0	0	323.0000	0	0	0	0
20416	159.54	78.00	78.00	-53.70	1.0200	100.00	1	161.00	50.00	0.00	0.00	0.00	0.00	0.00	0.00	0	0	0	0	161.0000	0	0	0	0
20417	151.12	-50.80	114.40	-50.80	1.0200	100.00	1	152.50	50.00	0.00	0.00	0.00	0.00	0.00	0.00	0	0	0	0	152.5000	0	0	0	0
20417	151.12	-50.80	114.40	-50.80	1.0200	100.00	1	152.50	50.00	0.00	0.00	0.00	0.00	0.00	0.00	0	0	0	0	152.5000	0	0	0	0
20417	213.44	-71.80	161.60	-71.80	1.0200	100.00	1	215.40	65.00	0.00	0.00	0.00	0.00	0.00	0.00	0	0	0	0	215.4000	0	0	0	0
20417	574.44	-82.66	359.30	-193.20	1.0200	100.00	1	579.70	300.00	0.00	0.00	0.00	0.00	0.00	0.00	0	0	0	0	579.7000	0	0	0	0
20418	54.50	18.10	18.10	-18.10	1.0200	100.00	1	55.00	2.00	0.00	0.00	0.00	0.00	0.00	0.00	0	0	0	0	55.0000	0	0	0	0
20418	30.12	16.58	16.58	-10.14	1.0200	100.00	1	30.40	2.40	0.00	0.00	0.00	0.00	0.00	0.00	0	0	0	0	30.4000	0	0	0	0
20418	30.12	16.58	16.58	-10.14	1.0200	100.00	1	30.40	2.40	0.00	0.00	0.00	0.00	0.00	0.00	0	0	0	0	30.4000	0	0	0	0
20418	30.12	16.58	16.58	-10.14	1.0200	100.00	1	30.40	2.40	0.00	0.00	0.00	0.00	0.00	0.00	0	0	0	0	30.4000	0	0	0	0
20418	30.12	16.58	16.58	-10.14	1.0200	100.00	1	30.40	2.40	0.00	0.00	0.00	0.00	0.00	0.00	0	0	0	0	30.4000	0	0	0	0
20418	30.12	16.58	16.58	-10.14	1.0200	100.00	1	30.40	2.40	0.00	0.00	0.00	0.00	0.00	0.00	0	0	0	0	30.4000	0	0	0	0
20418	39.64	24.80	24.80	-13.30	1.0200	100.00	1	40.00	4.00	0.00	0.00	0.00	0.00	0.00	0.00	0	0	0	0	40.0000	0	0	0	0
20418	31.71	19.80	19.80	-10.70	1.0200	100.00	1	32.00	2.00	0.00	0.00	0.00	0.00	0.00	0.00	0	0	0	0	32.0000	0	0	0	0
20419	148.64	62.19	93.00	-50.00	1.0200	100.00	1	150.00	65.00	0.00	0.00	0.00	0.00	0.00	0.00	0	0	0	0	150.0000	0	0	0	0
20419	148.64	62.19	93.00	-50.00	1.0200	100.00	1	150.00	65.00	0.00	0.00	0.00	0.00	0.00	0.00	0	0	0	0	150.0000	0	0	0	0
20419	148.64	62.19	93.00	-50.00	1.0200	100.00	1	150.00	58.50	0.00	0.00	0.00	0.00	0.00	0.00	0	0	0	0	150.0000	0	0	0	0
20419	148.64	62.19	93.00	-50.00	1.0200	100.00	1	150.00	58.50	0.00	0.00	0.00	0.00	0.00	0.00	0	0	0	0	150.0000	0	0	0	0
20421	127.83	29.54	62.50	-43.00	1.0200	100.00	1	129.00	70.00	0.00	0.00	0.00	0.00	0.00	0.00	0	0	0	0	129.0000	0	0	0	0
20421	127.83	29.54	62.50	-43.00	1.0200	100.00	1	129.00	70.00	0.00	0.00	0.00	0.00	0.00	0.00	0	0	0	0	129.0000	0	0	0	0
20422	136.85	78.30	78.30	-46.00	1.0200	100.00	1	138.10	34.53	0.00	0.00	0.00	0.00	0.00	0.00	0	0	0	0	138.1000	0	0	0	0
20422	126.34	90.30	90.30	-42.50	1.0200	100.00	1	127.50	49.72	0.00	0.00	0.00	0.00	0.00	0.00	0	0	0	0	127.5000	0	0	0	0
20422	126.84	90.70	90.70	-42.70	1.0200	100.00	1	128.00	49.92	0.00	0.00	0.00	0.00	0.00	0.00	0	0	0	0	128.0000	0	0	0	0
20422	126.84	90.70	90.70	-42.70	1.0200	100.00	1	128.00	49.92	0.00	0.00	0.00	0.00	0.00	0.00	0	0	0	0	128.0000	0	0	0	0
20423	73.09	5.82	60.60	-41.70	1.0200	100.00	1	125.10	45.00	0.00	0.00	0.00	0.00	0.00	0.00	0	0	0	0	125.1000	0	0	0	0
20423	73.09	5.82	60.60	-41.70	1.0200	100.00	1	125.10	45.00	0.00	0.00	0.00	0.00	0.00	0.00	0	0	0	0	125.1000	0	0	0	0
20423	73.09	5.82	60.60	-41.70	1.0200	100.00	1	125.10	45.00	0.00	0.00	0.00	0.00	0.00	0.00	0	0	0	0	125.1000	0	0	0	0
20423	73.09	5.82	60.60	-41.70	1.0200	100.00	1	125.10	45.00	0.00	0.00	0.00	0.00	0.00	0.00	0	0	0	0	125.1000	0	0	0	0
20425	123.86	-14.99	77.50	-41.70	1.0200	100.00	1	125.00	57.00	0.00	0.00	0.00	0.00	0.00	0.00	0	0	0	0	125.0000	0	0	0	0
20425	122.08	-14.99	76.40	-41.10	1.0200	100.00	1	123.20	50.00	0.00	0.00	0.00	0.00	0.00	0.00	0	0	0	0	123.2000	0	0	0	0
20425	111.48	-14.99	69.70	-37.50	1.0200	100.00	1	112.50	50.00	0.00	0.00	0.00	0.00	0.00	0.00	0	0	0	0	112.5000	0	0	0	0
20425	111.48	-14.99	69.70	-37.50	1.0200	100.00	1	112.50	50.00	0.00	0.00	0.00	0.00	0.00	0.00	0	0	0	0	112.5000	0	0	0	0
20425	111.48	-14.99	84.40	-37.50	1.0200	100.00	1	112.50	55.00	0.00	0.00	0.00	0.00	0.00	0.00	0	0	0	0	112.5000	0	0	0	0
20425	190.26	-14.99	144.00	-64.00	1.0200	100.00	1	192.00	100.00	0.00	0.00	0.00	0.00	0.00	0.00	0	0	0	0	192.0000	0	0	0	0
20425	383.49	-14.99	239.80	-129.00	1.0200	100.00	1	387.00	130.00	0.00	0.00	0.00	0.00	0.00	0.00	0	0	0	0	387.0000	0	0	0	0
20428	68.28	0.28	64.30	-34.60	1.0200	100.00	1	103.70	45.00	0.00	0.00	0.00	0.00	0.00	0.00	0	0	0	0	103.7000	0	0	0	0
20428	194.54	0.28	87.20	-87.20	1.0200	100.00	1	265.20	135.00	0.00	0.00	0.00	0.00	0.00	0.00	0	0	0	0	265.2000	0	0	0	0
20429	103.50	45.60	45.60	-45.60	1.0200	100.00	1	103.50	1.40	0.00	0.00	0.00	0.00	0.00	0.00	0	0	0	0	0.0000	0	0	0	0
20430	200.00	43.31	96.90	-66.70	1.0200	100.00	1	200.00	3.60	0.00	0.00	0.00	0.00	0.00	0.00	0	0	0	0	0.0000	0	0	0	0
20430	201.30	43.31	97.50	-67.10	1.0200	100.00	1	201.30	0.60	0.00	0.00	0.00	0.00	0.00	0.00	0	0	0	0	0.0000	0	0	0	0
20430	100.00	43.31	44.10	-44.10	1.0200	100.00	1	100.00	20.00	0.00	0.00	0.00	0.00	0.00	0.00	0	0	0	0	0.0000	0	0	0	0
20430	99.00	43.31	43.70	-43.70	1.0200	100.00	1	99.00	0.30	0.00	0.00	0.00	0.00	0.00	0.00	0	0	0	0	0.0000	0	0	0	0
20431	99.00	34.66	43.70	-43.70	1.0200	100.00	1	99.00	1.50	0.00	0.00	0.00	0.00	0.00	0.00	0	0	0	0	0.0000	0	0	0	0
20432	98.70	-0.01	43.50	-43.50	1.0200	100.00	1	98.70	0.70	0.00	0.00	0.00	0.00	0.00	0.00	0	0	0	0	0.0000	0	0	0	0
20433	73.16	0.00	0.00	0.00	1.0200	100.00	1	94.60	10.00	0.00	0.00	0.00	0.00	0.00	0.00	0	0	0	0	94.6000	0	0	0	0
20434	89.18	0.00	0.00	0.00	1.0200	100.00	1	90.00	9.00	0.00	0.00	0.00	0.00	0.00	0.00	0	0	0	0	90.0000	0	0	0	0
20435	29.73	9.90	9.90	-9.90	1.0200	100.00	1	30.00	5.00	0.00	0.00	0.00	0.00	0.00	0.00	0	0	0	0	30.0000	0	0	0	0
20435	14.67	7.53	7.53	-4.93	1.0200	100.00	1	14.80	2.47	0.00	0.00	0.00	0.00	0.00	0.00	0	0	0	0	14.8000	0	0	0	0
20435	14.67	7.53	7.53	-4.93	1.0200	100.00	1	14.80	2.47	0.00	0.00	0.00	0.00	0.00	0.00	0	0	0	0	14.8000	0	0	0	0
20435	14.67	7.53	7.53	-4.93	1.0200	100.00	1	14.80	2.47	0.00	0.00	0.00	0.00	0.00	0.00	0	0	0	0	14.8000	0	0	0	0
20435	14.67	7.53	7.53	-4.93	1.0200	100.00	1	14.80	2.47	0.00	0.00	0.00	0.00	0.00	0.00	0	0	0	0	14.8000	0	0	0	0
20435	14.67	7.53	7.53	-4.93	1.0200	100.00	1	14.80	2.47	0.00	0.00	0.00	0.00	0.00	0.00	0	0	0	0	14.8000	0	0	0	0
20435	14.67	7.53	7.53	-4.93	1.0200	100.00	1	14.80	2.47	0.00	0.00	0.00	0.00	0.00	0.00	0	0	0	0	14.8000	0	0	0	0
20436	85.71	8.00	53.60	-28.80	1.0200	100.00	1	86.50	50.00	0.00	0.00	0.00	0.00	0.00	0.00	0	0	0	0	86.5000	0	0	0	0
20436	85.71	8.00	53.60	-28.80	1.0200	100.00	1	86.50	50.00	0.00	0.00	0.00	0.00	0.00	0.00	0	0	0	0	86.5000	0	0	0	0
20436	85.71	8.00	53.60	-28.80	1.0200	100.00	1	86.50	50.00	0.00	0.00	0.00	0.00	0.00	0.00	0	0	0	0	86.5000	0	0	0	0
20436	85.71	8.00	53.60	-28.80	1.0200	100.00	1	86.50	50.00	0.00	0.00	0.00	0.00	0.00	0.00	0	0	0	0	86.5000	0	0	0	0
20436	85.71	8.00	53.60	-28.80	1.0200	100.00	1	86.50	50.00	0.00	0.00	0.00	0.00	0.00	0.00	0	0	0	0	86.5000	0	0	0	0
20436	85.71	8.00	53.60	-28.80	1.0200	100.00	1	86.50	50.00	0.00	0.00	0.00	0.00	0.00	0.00	0	0	0	0	86.5000	0	0	0	0
20436	85.71	8.00	53.60	-28.80	1.0200	100.00	1	86.50	50.00	0.00	0.00	0.00	0.00	0.00	0.00	0	0	0	0	86.5000	0	0	0	0
20436	85.71	8.00	53.60	-28.80	1.0200	100.00	1	86.50	50.00	0.00	0.00	0.00	0.00	0.00	0.00	0	0	0	0	86.5000	0	0	0	0
20437	84.23	52.70	52.70	-28.30	1.0200	100.00	1	85.00	45.00	0.00	0.00	0.00	0.00	0.00	0.00	0	0	0	0	85.0000	0	0	0	0
20437	84.23	52.70	52.70	-28.30	1.0200	100.00	1	85.00	45.00	0.00	0.00	0.00	0.00	0.00	0.00	0	0	0	0	85.0000	0	0	0	0
20437	84.23	52.70	52.70	-28.30	1.0200	100.00	1	85.00	45.00	0.00	0.00	0.00	0.00	0.00	0.00	0	0	0	0	85.0000	0	0	0	0
20437	84.23	52.70	52.70	-28.30	1.0200	100.00	1	85.00	45.00	0.00	0.00	0.00	0.00	0.00	0.00	0	0	0	0	85.0000	0	0	0	0
20438	66.39	41.50	41.50	-22.30	1.0200	100.00	1	67.00	20.00	0.00	0.00	0.00	0.00	0.00	0.00	0	0	0	0	67.0000	0	0	0	0
20438	66.39	41.50	41.50	-22.30	1.0200	100.00	1	67.00	20.00	0.00	0.00	0.00	0.00	0.00	0.00	0	0	0	0	67.0000	0	0	0	0
20438	66.39	41.50	41.50	-22.30	1.0200	100.00	1	67.00	20.00	0.00	0.00	0.00	0.00	0.00	0.00	0	0	0	0	67.0000	0	0	0	0
20438	66.39	41.50	41.50	-22.30	1.0200	100.00	1	67.00	20.00	0.00	0.00	0.00	0.00	0.00	0.00	0	0	0	0	67.0000	0	0	0	0
20438	66.39	41.50	41.50	-22.30	1.0200	100.00	1	67.00	20.00	0.00	0.00	0.00	0.00	0.00	0.00	0	0	0	0	67.0000	0	0	0	0
20438	66.39	41.50	41.50	-22.30	1.0200	100.00	1	67.00	20.00	0.00	0.00	0.00	0.00	0.00	0.00	0	0	0	0	67.0000	0	0	0	0
20439	60.45	40.30	40.30	-20.30	1.0200	100.00	1	61.00	27.00	0.00	0.00	0.00	0.00	0.00	0.00	0	0	0	0	61.0000	0	0	0	0
20440	49.55	37.50	37.50	-16.70	1.0200	100.00	1	50.00	23.80	0.00	0.00	0.00	0.00	0.00	0.00	0	0	0	0	50.0000	0	0	0	0
20440	49.55	37.50	37.50	-16.70	1.0200	100.00	1	50.00	23.80	0.00	0.00	0.00	0.00	0.00	0.00	0	0	0	0	50.0000	0	0	0	0
20440	60.45	45.80	45.80	-20.30	1.0200	100.00	1	61.00	29.04	0.00	0.00	0.00	0.00	0.00	0.00	0	0	0	0	61.0000	0	0	0	0
20440	60.45	45.80	45.80	-20.30	1.0200	100.00	1	61.00	29.04	0.00	0.00	0.00	0.00	0.00	0.00	0	0	0	0	61.0000	0	0	0	0
20440	60.45	45.80	45.80	-20.30	1.0200	100.00	1	61.00	29.04	0.00	0.00	0.00	0.00	0.00	0.00	0	0	0	0	61.0000	0	0	0	0
20442	58.46	36.60	36.60	-19.70	1.0200	100.00	1	59.00	10.00	0.00	0.00	0.00	0.00	0.00	0.00	0	0	0	0	59.0000	0	0	0	0
20442	58.46	36.60	36.60	-19.70	1.0200	100.00	1	59.00	10.00	0.00	0.00	0.00	0.00	0.00	0.00	0	0	0	0	59.0000	0	0	0	0
20442	58.46	36.60	36.60	-19.70	1.0200	100.00	1	59.00	10.00	0.00	0.00	0.00	0.00	0.00	0.00	0	0	0	0	59.0000	0	0	0	0
20442	58.46	36.60	36.60	-19.70	1.0200	100.00	1	59.00	10.00	0.00	0.00	0.00	0.00	0.00	0.00	0	0	0	0	59.0000	0	0	0	0
20444	50.54	16.80	16.80	-16.80	1.0200	100.00	1	51.00	10.00	0.00	0.00	0.00	0.00	0.00	0.00	0	0	0	0	51.0000	0	0	0	0
20444	62.63	20.80	20.80	-20.80	1.0200	100.00	1	63.20	10.00	0.00	0.00	0.00	0.00	0.00	0.00	0	0	0	0	63.2000	0	0	0	0
20444	61.44	20.40	20.40	-20.40	1.0200	100.00	1	62.00	2.00	0.00	0.00	0.00	0.00	0.00	0.00	0	0	0	0	62.0000	0	0	0	0
20445	49.55	31.00	31.00	-16.70	1.0200	100.00	1	50.00	34.00	0.00	0.00	0.00	0.00	0.00	0.00	0	0	0	0	50.0000	0	0	0	0
20445	112.57	70.40	70.40	-37.90	1.0200	100.00	1	113.60	54.00	0.00	0.00	0.00	0.00	0.00	0.00	0	0	0	0	113.6000	0	0	0	0
20445	68.37	42.80	42.80	-23.00	1.0200	100.00	1	69.00	32.00	0.00	0.00	0.00	0.00	0.00	0.00	0	0	0	0	69.0000	0	0	0	0
20445	68.37	42.80	42.80	-23.00	1.0200	100.00	1	69.00	32.00	0.00	0.00	0.00	0.00	0.00	0.00	0	0	0	0	69.0000	0	0	0	0
20445	45.58	28.50	28.50	-15.30	1.0200	100.00	1	46.00	16.56	0.00	0.00	0.00	0.00	0.00	0.00	0	0	0	0	46.0000	0	0	0	0
20445	45.58	28.50	28.50	-15.30	1.0200	100.00	1	46.00	16.56	0.00	0.00	0.00	0.00	0.00	0.00	0	0	0	0	46.0000	0	0	0	0
20446	41.42	20.20	20.20	-13.90	1.0200	100.00	1	41.80	2.00	0.00	0.00	0.00	0.00	0.00	0.00	0	0	0	0	41.8000	0	0	0	0
20446	41.42	20.20	20.20	-13.90	1.0200	100.00	1	41.80	2.00	0.00	0.00	0.00	0.00	0.00	0.00	0	0	0	0	41.8000	0	0	0	0
20448	41.02	25.70	25.70	-13.80	1.0200	100.00	1	41.40	17.00	0.00	0.00	0.00	0.00	0.00	0.00	0	0	0	0	41.4000	0	0	0	0
20448	41.02	25.70	25.70	-13.80	1.0200	100.00	1	41.40	17.00	0.00	0.00	0.00	0.00	0.00	0.00	0	0	0	0	41.4000	0	0	0	0
20448	85.12	53.20	53.20	-28.60	1.0200	100.00	1	85.90	36.00	0.00	0.00	0.00	0.00	0.00	0.00	0	0	0	0	85.9000	0	0	0	0
20449	39.83	12.81	30.20	-13.40	1.0200	100.00	1	40.20	14.07	0.00	0.00	0.00	0.00	0.00	0.00	0	0	0	0	40.2000	0	0	0	0
20449	68.37	12.81	51.80	-23.00	1.0200	100.00	1	69.00	24.15	0.00	0.00	0.00	0.00	0.00	0.00	0	0	0	0	69.0000	0	0	0	0
20449	34.68	12.81	26.30	-11.70	1.0200	100.00	1	35.00	12.60	0.00	0.00	0.00	0.00	0.00	0.00	0	0	0	0	35.0000	0	0	0	0
20450	60.35	37.70	37.70	-20.30	1.0200	100.00	1	60.90	28.00	0.00	0.00	0.00	0.00	0.00	0.00	0	0	0	0	60.9000	0	0	0	0
20450	32.70	20.50	20.50	-11.00	1.0200	100.00	1	33.00	13.00	0.00	0.00	0.00	0.00	0.00	0.00	0	0	0	0	33.0000	0	0	0	0
20451	30.52	23.10	23.10	-10.30	1.0200	100.00	1	30.80	5.00	0.00	0.00	0.00	0.00	0.00	0.00	0	0	0	0	30.8000	0	0	0	0
20452	24.77	15.50	15.50	-8.30	1.0200	100.00	1	25.00	9.50	0.00	0.00	0.00	0.00	0.00	0.00	0	0	0	0	25.0000	0	0	0	0
20453	11.94	7.45	7.45	-4.00	1.0200	100.00	1	12.05	1.50	0.00	0.00	0.00	0.00	0.00	0.00	0	0	0	0	12.0500	0	0	0	0
20453	11.94	7.45	7.45	-4.00	1.0200	100.00	1	12.05	1.50	0.00	0.00	0.00	0.00	0.00	0.00	0	0	0	0	12.0500	0	0	0	0
20454	5.80	0.00	0.00	0.00	1.0200	100.00	1	5.85	0.75	0.00	0.00	0.00	0.00	0.00	0.00	0	0	0	0	5.8500	0	0	0	0
20454	5.80	0.00	0.00	0.00	1.0200	100.00	1	5.85	0.75	0.00	0.00	0.00	0.00	0.00	0.00	0	0	0	0	5.8500	0	0	0	0
20454	5.80	0.00	0.00	0.00	1.0200	100.00	1	5.85	0.75	0.00	0.00	0.00	0.00	0.00	0.00	0	0	0	0	5.8500	0	0	0	0
20454	5.80	0.00	0.00	0.00	1.0200	100.00	1	5.85	0.75	0.00	0.00	0.00	0.00	0.00	0.00	0	0	0	0	5.8500	0	0	0	0
20455	7.92	6.90	6.90	-3.70	1.0200	100.00	1	11.10	2.00	0.00	0.00	0.00	0.00	0.00	0.00	0	0	0	0	11.1000	0	0	0	0
20455	7.56	6.90	6.90	-3.70	1.0200	100.00	1	11.10	2.00	0.00	0.00	0.00	0.00	0.00	0.00	0	0	0	0	11.1000	0	0	0	0
20457	21.40	4.97	16.20	-7.20	1.0200	100.00	1	21.60	1.00	0.00	0.00	0.00	0.00	0.00	0.00	0	0	0	0	21.6000	0	0	0	0
20457	21.40	4.97	16.20	-7.20	1.0200	100.00	1	21.60	1.00	0.00	0.00	0.00	0.00	0.00	0.00	0	0	0	0	21.6000	0	0	0	0
20457	21.40	4.97	16.20	-7.20	1.0200	100.00	1	21.60	1.00	0.00	0.00	0.00	0.00	0.00	0.00	0	0	0	0	21.6000	0	0	0	0
20458	610.60	-65.94	364.43	-205.40	1.0200	100.00	1	616.20	302.00	0.00	0.00	0.00	0.00	0.00	0.00	0	0	0	0	616.2000	0	0	0	0
20458	86.31	-29.00	54.00	-29.00	1.0200	100.00	1	87.10	70.00	0.00	0.00	0.00	0.00	0.00	0.00	0	0	0	0	87.1000	0	0	0	0
20458	86.31	-29.00	54.00	-29.00	1.0200	100.00	1	87.10	70.00	0.00	0.00	0.00	0.00	0.00	0.00	0	0	0	0	87.1000	0	0	0	0
20458	86.31	-29.00	54.00	-29.00	1.0200	100.00	1	87.10	70.00	0.00	0.00	0.00	0.00	0.00	0.00	0	0	0	0	87.1000	0	0	0	0
20458	86.31	-29.00	54.00	-29.00	1.0200	100.00	1	87.10	70.00	0.00	0.00	0.00	0.00	0.00	0.00	0	0	0	0	87.1000	0	0	0	0
20458	86.31	-29.00	54.00	-29.00	1.0200	100.00	1	87.10	70.00	0.00	0.00	0.00	0.00	0.00	0.00	0	0	0	0	87.1000	0	0	0	0
20458	86.31	-29.00	54.00	-29.00	1.0200	100.00	1	87.10	70.00	0.00	0.00	0.00	0.00	0.00	0.00	0	0	0	0	87.1000	0	0	0	0
20458	86.31	-29.00	54.00	-29.00	1.0200	100.00	1	87.10	70.00	0.00	0.00	0.00	0.00	0.00	0.00	0	0	0	0	87.1000	0	0	0	0
20458	86.31	-29.00	54.00	-29.00	1.0200	100.00	1	87.10	70.00	0.00	0.00	0.00	0.00	0.00	0.00	0	0	0	0	87.1000	0	0	0	0
20458	610.60	-65.94	364.43	-205.40	1.0200	100.00	1	616.20	302.00	0.00	0.00	0.00	0.00	0.00	0.00	0	0	0	0	616.2000	0	0	0	0
20458	610.60	-65.94	364.43	-205.40	1.0200	100.00	1	616.20	302.00	0.00	0.00	0.00	0.00	0.00	0.00	0	0	0	0	616.2000	0	0	0	0
20458	406.28	-65.94	198.60	-136.70	1.0200	100.00	1	410.00	25.00	0.00	0.00	0.00	0.00	0.00	0.00	0	0	0	0	410.0000	0	0	0	0
20458	376.55	-65.94	235.50	-126.70	1.0200	100.00	1	380.00	40.00	0.00	0.00	0.00	0.00	0.00	0.00	0	0	0	0	380.0000	0	0	0	0
20458	86.31	-29.00	54.00	-29.00	1.0200	100.00	1	87.10	70.00	0.00	0.00	0.00	0.00	0.00	0.00	0	0	0	0	87.1000	0	0	0	0
20458	86.31	-29.00	54.00	-29.00	1.0200	100.00	1	87.10	70.00	0.00	0.00	0.00	0.00	0.00	0.00	0	0	0	0	87.1000	0	0	0	0
20458	86.31	-29.00	54.00	-29.00	1.0200	100.00	1	87.10	70.00	0.00	0.00	0.00	0.00	0.00	0.00	0	0	0	0	87.1000	0	0	0	0
20458	86.31	-29.00	54.00	-29.00	1.0200	100.00	1	87.10	70.00	0.00	0.00	0.00	0.00	0.00	0.00	0	0	0	0	87.1000	0	0	0	0
20459	1133.30	203.67	548.90	-377.80	1.0200	100.00	1	1133.30	1053.00	0.00	0.00	0.00	0.00	0.00	0.00	0	0	0	0	0.0000	0	0	0	0
20459	1085.20	203.67	557.90	-384.00	1.0200	100.00	1	1152.00	1006.00	0.00	0.00	0.00	0.00	0.00	0.00	0	0	0	0	0.0000	0	0	0	0
20460	81.18	269.63	608.90	-270.60	1.0200	100.00	1	811.80	0.00	0.00	0.00	0.00	0.00	0.00	0.00	0	0	0	0	0.0000	0	0	0	0
20461	691.17	12.79	337.80	-232.50	1.0200	100.00	1	697.50	155.00	0.00	0.00	0.00	0.00	0.00	0.00	0	0	0	0	697.5000	0	0	0	0
20461	691.17	12.79	337.80	-232.50	1.0200	100.00	1	697.50	155.00	0.00	0.00	0.00	0.00	0.00	0.00	0	0	0	0	697.5000	0	0	0	0
20461	84.53	12.79	52.90	-28.40	1.0200	100.00	1	85.30	12.00	0.00	0.00	0.00	0.00	0.00	0.00	0	0	0	0	85.3000	0	0	0	0
20461	84.53	12.79	52.90	-28.40	1.0200	100.00	1	85.30	12.00	0.00	0.00	0.00	0.00	0.00	0.00	0	0	0	0	85.3000	0	0	0	0
20461	84.53	12.79	52.90	-28.40	1.0200	100.00	1	85.30	12.00	0.00	0.00	0.00	0.00	0.00	0.00	0	0	0	0	85.3000	0	0	0	0
20462	314.04	35.98	204.40	-109.90	1.0200	100.00	1	329.80	240.00	0.00	0.00	0.00	0.00	0.00	0.00	0	0	0	0	329.8000	0	0	0	0
20462	314.04	35.98	204.40	-109.90	1.0200	100.00	1	329.80	240.00	0.00	0.00	0.00	0.00	0.00	0.00	0	0	0	0	329.8000	0	0	0	0
...
];

%% generator cost data
mpc.gencost = [
2	0	0	4	0.0000	0.001	12.513	2114.90
2	0	0	4	0.0000	0.001	12.513	2114.90
2	0	0	4	0.0000	0.002	13.037	1047.40
2	0	0	4	0.0000	0.002	13.037	1047.40
2	0	0	4	0.0000	0.002	13.037	1047.40
2	0	0	4	0.0000	0.002	13.037	1047.40
2	0	0	4	0.0000	0.002	13.037	1047.40
2	0	0	4	0.0000	0.034	24.825	226.45
2	0	0	4	0.0000	0.034	24.825	226.45
2	0	0	4	0.0000	0.002	13.277	813.68
2	0	0	4	0.0000	0.002	13.279	815.22
2	0	0	4	0.0000	0.002	13.279	815.22
2	0	0	4	0.0000	0.007	16.922	371.49
2	0	0	4	0.0000	0.002	13.269	803.20
2	0	0	4	0.0000	0.002	13.269	803.20
2	0	0	4	0.0000	0.002	13.035	1052.20
2	0	0	4	0.0000	0.002	13.035	1052.20
2	0	0	4	0.0000	0.005	13.538	463.61
2	0	0	4	0.0000	0.002	13.256	781.99
2	0	0	4	0.0000	0.007	16.922	371.49
2	0	0	4	0.0000	0.007	16.922	371.49
2	0	0	4	0.0000	0.005	13.588	445.01
2	0	0	4	0.0000	0.005	13.588	445.01
2	0	0	4	0.0000	0.006	13.811	385.35
2	0	0	4	0.0000	0.006	13.811	385.35
2	0	0	4	0.0000	0.006	13.811	385.35
2	0	0	4	0.0000	0.006	13.811	385.35
2	0	0	4	0.0000	0.006	13.811	385.35
2	0	0	4	0.0000	0.006	13.811	385.35
2	0	0	4	0.0000	0.009	18.772	588.04
2	0	0	4	0.0000	0.009	18.772	588.04
2	0	0	4	0.0000	0.009	18.772	588.04
2	0	0	4	0.0000	0.000	0.000	0.00
2	0	0	4	0.0000	0.007	13.961	355.30
2	0	0	4	0.0000	0.026	13.537	318.86
2	0	0	4	0.0000	0.003	13.138	631.77
2	0	0	4	0.0000	0.032	9.547	2249.86
2	0	0	4	0.0000	0.032	9.547	2249.86
2	0	0	4	0.0000	0.009	18.772	588.04
2	0	0	4	0.0000	0.032	9.547	2249.86
2	0	0	4	0.0000	0.032	9.547	2249.86
2	0	0	4	0.0000	0.032	9.547	2249.86
2	0	0	4	0.0000	0.032	9.547	2249.86
2	0	0	4	0.0000	0.026	11.398	993.75
2	0	0	4	0.0000	0.026	11.398	993.75
2	0	0	4	0.0000	0.014	14.920	188.18
2	0	0	4	0.0000	0.046	77.147	1586.40
2	0	0	4	0.0000	0.046	77.147	1586.40
2	0	0	4	0.0000	0.003	13.196	696.71
2	0	0	4	0.0000	0.014	14.920	188.18
2	0	0	4	0.0000	0.007	16.922	371.49
2	0	0	4	0.0000	0.007	16.922	371.49
2	0	0	4	0.0000	0.005	60.757	2894.55
2	0	0	4	0.0000	0.046	77.147	1586.40
2	0	0	4	0.0000	0.046	77.147	1586.40
2	0	0	4	0.0000	0.046	77.147	1586.40
2	0	0	4	0.0000	0.046	77.147	1586.40
2	0	0	4	0.0000	0.008	14.135	307.36
2	0	0	4	0.0000	0.008	14.135	307.36
2	0	0	4	0.0000	0.008	14.135	307.36
2	0	0	4	0.0000	0.004	13.397	512.16
2	0	0	4	0.0000	0.013	22.680	468.14
2	0	0	4	0.0000	0.009	14.342	276.67
2	0	0	4	0.0000	0.009	14.342	276.67
2	0	0	4	0.0000	0.006	13.813	382.20
2	0	0	4	0.0000	0.002	13.329	887.35
2	0	0	4	0.0000	0.047	25.435	175.85
2	0	0	4	0.0000	0.014	22.845	442.95
2	0	0	4	0.0000	0.014	22.845	442.95
2	0	0	4	0.0000	0.014	22.845	442.95
2	0	0	4	0.0000	0.014	22.845	442.95
2	0	0	4	0.0000	0.014	22.845	442.95
2	0	0	4	0.0000	0.063	25.545	130.87
2	0	0	4	0.0000	0.074	25.545	111.24
2	0	0	4	0.0000	0.009	14.376	271.89
2	0	0	4	0.0000	0.009	14.376	271.89
2	0	0	4	0.0000	0.009	14.376	271.89
2	0	0	4	0.0000	0.009	14.376	271.89
2	0	0	4	0.0000	0.007	16.922	371.49
2	0	0	4	0.0000	0.007	16.922	371.49
2	0	0	4	0.0000	0.016	23.121	404.83
2	0	0	4	0.0000	0.011	14.595	239.21
2	0	0	4	0.0000	0.011	14.594	242.12
2	0	0	4	0.0000	0.011	14.594	242.12
2	0	0	4	0.0000	0.007	16.922	371.49
2	0	0	4	0.0000	0.007	16.922	371.49
2	0	0	4	0.0000	0.007	16.922	371.49
2	0	0	4	0.0000	0.007	16.922	371.49
2	0	0	4	0.0000	0.011	14.645	233.21
2	0	0	4	0.0000	0.011	14.658	229.96
2	0	0	4	0.0000	0.013	14.813	208.07
2	0	0	4	0.0000	0.013	14.813	208.07
2	0	0	4	0.0000	0.013	14.813	208.07
2	0	0	4	0.0000	0.032	9.547	2249.86
2	0	0	4	0.0000	0.004	13.172	584.57
2	0	0	4	0.0000	0.014	14.886	195.25
2	0	0	4	0.0000	0.005	13.597	442.21
2	0	0	4	0.0000	0.000	0.000	0.00
2	0	0	4	0.0000	0.000	0.000	0.00
2	0	0	4	0.0000	0.000	0.000	0.00
2	0	0	4	0.0000	0.000	0.000	0.00
2	0	0	4	0.0000	0.000	0.000	0.00
2	0	0	4	0.0000	0.000	0.000	0.00
2	0	0	4	0.0000	0.000	0.000	0.00
2	0	0	4	0.0000	0.019	15.070	176.37
2	0	0	4	0.0000	0.026	24.168	277.16
2	0	0	4	0.0000	0.087	25.545	94.88
2	0	0	4	0.0000	0.027	24.223	271.68
2	0	0	4	0.0000	0.027	24.223	271.68
2	0	0	4	0.0000	0.027	24.223	271.68
2	0	0	4	0.0000	0.027	24.223	271.68
2	0	0	4	0.0000	0.027	24.223	271.68
2	0	0	4	0.0000	0.027	24.223	271.68
2	0	0	4	0.0000	0.007	16.922	371.49
2	0	0	4	0.0000	0.007	16.922	371.49
2	0	0	4	0.0000	0.007	16.922	371.49
2	0	0	4	0.0000	0.007	16.922	371.49
2	0	0	4	0.0000	0.007	16.922	371.49
2	0	0	4	0.0000	0.007	16.922	371.49
2	0	0	4	0.0000	0.007	16.922	371.49
2	0	0	4	0.0000	0.007	16.922	371.49
2	0	0	4	0.0000	0.007	16.922	371.49
2	0	0	4	0.0000	0.007	16.922	371.49
2	0	0	4	0.0000	0.007	16.922	371.49
2	0	0	4	0.0000	0.007	16.922	371.49
2	0	0	4	0.0000	0.026	13.537	318.86
2	0	0	4	0.0000	0.026	13.537	318.86
2	0	0	4	0.0000	0.026	13.537	318.86
2	0	0	4	0.0000	0.026	13.537	318.86
2	0	0	4	0.0000	0.026	13.537	318.86
2	0	0	4	0.0000	0.026	13.537	318.86
2	0	0	4	0.0000	0.053	14.879	51.34
2	0	0	4	0.0000	0.053	14.879	51.34
2	0	0	4	0.0000	0.053	14.879	51.34
2	0	0	4	0.0000	0.053	14.879	51.34
2	0	0	4	0.0000	0.053	14.879	51.34
2	0	0	4	0.0000	0.053	14.879	51.34
2	0	0	4	0.0000	0.026	13.537	318.86
2	0	0	4	0.0000	0.026	13.537	318.86
2	0	0	4	0.0000	0.026	13.537	318.86
2	0	0	4	0.0000	0.026	13.537	318.86
2	0	0	4	0.0000	0.051	25.545	163.59
2	0	0	4	0.0000	0.039	25.105	203.10
2	0	0	4	0.0000	0.040	25.160	199.51
2	0	0	4	0.0000	0.030	16.003	102.29
2	0	0	4	0.0000	0.013	14.778	211.58
2	0	0	4	0.0000	0.022	15.601	135.81
2	0	0	4	0.0000	0.022	15.601	135.81
2	0	0	4	0.0000	0.180	87.000	507.30
2	0	0	4	0.0000	0.180	87.000	507.30
2	0	0	4	0.0000	0.008	50.578	1755.23
2	0	0	4	0.0000	0.008	50.578	1755.23
2	0	0	4	0.0000	0.026	13.537	318.86
2	0	0	4	0.0000	0.026	13.537	318.86
2	0	0	4	0.0000	0.007	16.922	371.49
2	0	0	4	0.0000	0.036	16.010	84.87
2	0	0	4	0.0000	0.022	15.587	137.47
2	0	0	4	0.0000	0.246	87.000	372.94
2	0	0	4	0.0000	0.025	15.780	122.03
2	0	0	4	0.0000	0.045	16.010	66.83
2	0	0	4	0.0000	0.085	25.309	135.16
2	0	0	4	0.0000	0.061	16.010	51.08
2	0	0	4	0.0000	0.062	16.010	50.49
2	0	0	4	0.0000	0.062	16.010	50.49
2	0	0	4	0.0000	0.114	25.478	83.38
2	0	0	4	0.0000	0.114	25.478	83.38
2	0	0	4	0.0000	0.114	25.478	83.38
2	0	0	4	0.0000	0.114	25.478	83.38
2	0	0	4	0.0000	0.026	13.537	318.86
2	0	0	4	0.0000	0.026	13.537	318.86
2	0	0	4	0.0000	0.062	14.879	43.97
2	0	0	4	0.0000	0.062	14.879	43.97
2	0	0	4	0.0000	0.062	14.879	43.97
2	0	0	4	0.0000	0.002	15.698	5647.54
2	0	0	4	0.0000	0.009	18.772	588.04
2	0	0	4	0.0000	0.009	18.772	588.04
2	0	0	4	0.0000	0.009	18.772	588.04
2	0	0	4	0.0000	0.009	18.772	588.04
2	0	0	4	0.0000	0.009	18.772	588.04
2	0	0	4	0.0000	0.009	18.772	588.04
2	0	0	4	0.0000	0.009	18.772	588.04
2	0	0	4	0.0000	0.009	18.772	588.04
2	0	0	4	0.0000	0.002	15.698	5647.54
2	0	0	4	0.0000	0.002	15.698	5647.54
2	0	0	4	0.0000	0.009	13.659	2130.63
2	0	0	4	0.0000	0.009	13.659	2130.63
2	0	0	4	0.0000	0.009	18.772	588.04
2	0	0	4	0.0000	0.009	18.772	588.04
2	0	0	4	0.0000	0.009	18.772	588.04
2	0	0	4	0.0000	0.009	18.772	588.04
2	0	0	4	0.0000	0.000	0.000	0.00
2	0	0	4	0.0000	0.000	0.000	0.00
2	0	0	4	0.0000	0.000	0.000	0.00
2	0	0	4	0.0000	0.002	12.935	1094.50
2	0	0	4	0.0000	0.002	12.935	1094.50
2	0	0	4	0.0000	0.007	16.922	371.49
2	0	0	4	0.0000	0.007	16.922	371.49
2	0	0	4	0.0000	0.007	16.922	371.49
2	0	0	4	0.0000	0.009	14.879	303.56
2	0	0	4	0.0000	0.009	14.879	303.56
...
];

%% branch data
mpc.branch = [
20401	20415	0.000971	0.011043	0.09974	736.00	772.80	809.60	0.00000	0.000	1	0.00	0.00	-106.91	4.83	107.02	-13.98	0	0	0	0
20401	20441	0.004723	0.052055	0.50897	736.00	772.80	809.60	0.00000	0.000	1	0.00	0.00	114.81	-27.96	-114.21	-18.24	0	0	0	0
20401	20857	0.001011	0.016464	0.25723	1419.00	1489.90	1560.90	0.00000	0.000	1	0.00	0.00	231.67	15.79	-231.14	-33.76	0	0	0	0
20401	21714	0.000780	0.013891	0.14413	1046.00	1098.30	1150.60	0.00000	0.000	1	0.00	0.00	267.03	2.92	-266.49	-8.34	0	0	0	0
20401	21992	0.001457	0.016943	0.14655	736.00	772.80	809.60	0.00000	0.000	1	0.00	0.00	11.87	13.09	-11.86	-28.19	0	0	0	0
20401	81859	0.000116	0.009249	0.00000	1600.00	1600.00	1600.00	1.00000	0.000	1	0.00	0.00	136.70	14.79	-136.68	-13.11	0	0	0	0
20401	81859	0.000116	0.009249	0.00000	1600.00	1600.00	1600.00	1.00000	0.000	1	0.00	0.00	136.70	14.79	-136.68	-13.11	0	0	0	0
20402	21030	0.000668	0.014038	4.94090	3601.00	3781.10	3961.10	0.00000	0.000	1	0.00	0.00	902.64	-185.69	-897.37	-213.66	0	0	0	0
20402	21381	0.000382	0.011965	6.25670	6811.00	7151.60	7492.10	0.00000	0.000	1	0.00	0.00	1107.45	-210.11	-1102.90	-292.32	0	0	0	0
20402	81861	0.000148	0.011878	0.00000	1650.00	1650.00	1650.00	1.00000	0.000	1	0.00	0.00	134.62	-3.36	-134.59	5.43	0	0	0	0
20402	81861	0.000148	0.011878	0.00000	1650.00	1650.00	1650.00	1.00000	0.000	1	0.00	0.00	134.62	-3.36	-134.59	5.43	0	0	0	0
20402	81861	0.000148	0.011878	0.00000	1650.00	1650.00	1650.00	1.00000	0.000	1	0.00	0.00	134.62	-3.36	-134.59	5.43	0	0	0	0
20403	20412	0.000709	0.012800	0.28386	1959.00	2056.90	2154.90	0.00000	0.000	1	0.00	0.00	128.81	-44.61	-128.69	17.33	0	0	0	0
20403	21305	0.000066	0.001087	0.01019	960.00	1008.00	1056.00	0.00000	0.000	1	0.00	0.00	268.38	50.76	-268.33	-51.03	0	0	0	0
20403	21313	0.000101	0.001860	0.01787	1046.00	1098.30	1150.60	0.00000	0.000	1	0.00	0.00	120.11	162.91	-120.07	-164.01	0	0	0	0
20403	21323	0.000512	0.008481	0.09059	998.00	1047.90	1097.80	0.00000	0.000	1	0.00	0.00	79.53	136.74	-79.40	-143.84	0	0	0	0
20403	81864	0.000529	0.036996	0.00000	400.00	400.00	400.00	1.00000	0.000	1	0.00	0.00	38.50	18.05	-38.49	-17.40	0	0	0	0
20403	81864	0.000529	0.036996	0.00000	400.00	400.00	400.00	1.00000	0.000	1	0.00	0.00	38.50	18.05	-38.49	-17.40	0	0	0	0
20404	20406	0.000211	0.004335	1.53450	3601.00	3781.10	3961.10	0.00000	0.000	1	0.00	0.00	-494.94	-50.62	495.43	-98.78	0	0	0	0
20404	21483	0.000216	0.007605	3.42580	6388.00	6707.40	7026.80	0.00000	0.000	1	0.00	0.00	1201.27	-81.75	-1198.25	-166.49	0	0	0	0
20404	81866	0.000175	0.013999	0.00000	1400.00	1400.00	1400.00	1.00000	0.000	1	0.00	0.00	181.93	2.76	-181.87	1.69	0	0	0	0
20404	81866	0.000175	0.013999	0.00000	1400.00	1400.00	1400.00	1.00000	0.000	1	0.00	0.00	181.93	2.76	-181.87	1.69	0	0	0	0
20405	20436	0.000070	0.000814	0.00713	736.00	772.80	809.60	0.00000	0.000	1	0.00	0.00	253.91	-22.12	-253.86	21.88	0	0	0	0
20405	21667	0.001745	0.020148	0.17678	736.00	772.80	809.60	0.00000	0.000	1	0.00	0.00	227.66	55.90	-226.72	-63.15	0	0	0	0
20405	21940	0.001573	0.019834	0.30271	1190.00	1249.50	1309.00	0.00000	0.000	1	0.00	0.00	506.53	62.70	-502.56	-43.55	0	0	0	0
20405	81869	0.000282	0.021141	0.00000	700.00	700.00	700.00	1.00000	0.000	1	0.00	0.00	87.87	9.99	-87.85	-8.40	0	0	0	0
20405	81869	0.000282	0.021141	0.00000	700.00	700.00	700.00	1.00000	0.000	1	0.00	0.00	87.87	9.99	-87.85	-8.40	0	0	0	0
20406	21483	0.000375	0.009514	4.18780	5108.00	5363.40	5618.80	0.00000	0.000	1	0.00	0.00	1185.07	-137.94	-1179.99	-166.28	0	0	0	0
20406	81871	0.000163	0.013066	0.00000	1500.00	1500.00	1500.00	1.00000	0.000	1	0.00	0.00	223.35	7.50	-223.27	-1.22	0	0	0	0
20406	81871	0.000163	0.013066	0.00000	1500.00	1500.00	1500.00	1.00000	0.000	1	0.00	0.00	223.35	7.50	-223.27	-1.22	0	0	0	0
81872	20406	0.000336	0.025174	0.00000	850.00	850.00	850.00	1.00000	0.000	0	0.00	0.00	0.00	0.00	0.00	0.00	0	0	0	0
81872	20406	0.000336	0.025174	0.00000	850.00	850.00	850.00	1.00000	0.000	0	0.00	0.00	0.00	0.00	0.00	0.00	0	0	0	0
20407	21758	0.000769	0.008434	0.08193	736.00	772.80	809.60	0.00000	0.000	1	0.00	0.00	137.23	45.29	-137.07	-52.05	0	0	0	0
20407	21997	0.000388	0.004258	0.04135	736.00	772.80	809.60	0.00000	0.000	1	0.00	0.00	157.47	40.44	-157.37	-43.65	0	0	0	0
81861	20407	0.001947	0.022070	0.20114	736.00	772.80	809.60	0.00000	0.000	1	0.00	0.00	32.91	-11.80	-32.89	-8.90	0	0	0	0
20407	81873	0.000529	0.036996	0.00000	400.00	400.00	400.00	1.00000	0.000	1	0.00	0.00	78.44	26.43	-78.40	-23.99	0	0	0	0
20407	81873	0.000529	0.036996	0.00000	400.00	400.00	400.00	1.00000	0.000	1	0.00	0.00	78.44	26.43	-78.40	-23.99	0	0	0	0
20408	21120	0.000040	0.000644	0.00649	970.00	1018.50	1067.00	0.00000	0.000	1	0.00	0.00	756.69	172.42	-756.46	-169.37	0	0	0	0
20408	81875	0.000438	0.032886	0.00000	450.00	450.00	450.00	1.00000	0.000	1	0.00	0.00	133.52	31.47	-133.44	-25.52	0	0	0	0
20408	81875	0.000438	0.032886	0.00000	450.00	450.00	450.00	1.00000	0.000	1	0.00	0.00	133.52	31.47	-133.44	-25.52	0	0	0	0
20408	81883	0.001224	0.019116	0.32546	1419.00	1489.90	1560.90	0.00000	0.000	1	0.00	0.00	268.23	-23.01	-267.38	2.40	0	0	0	0
20409	22032	0.000379	0.004291	0.03906	736.00	772.80	809.60	0.00000	0.000	1	0.00	0.00	-5.12	17.83	5.13	-21.87	0	0	0	0
20409	22034	0.000104	0.001923	0.01848	1046.00	1098.30	1150.60	0.00000	0.000	1	0.00	0.00	312.82	37.95	-312.72	-38.04	0	0	0	0
20409	81877	0.000783	0.042278	0.00000	350.00	350.00	350.00	1.00000	0.000	1	0.00	0.00	29.00	7.33	-28.99	-6.97	0	0	0	0
20409	81877	0.000783	0.042278	0.00000	350.00	350.00	350.00	1.00000	0.000	1	0.00	0.00	29.00	7.33	-28.99	-6.97	0	0	0	0
20409	81902	0.000437	0.005109	0.09053	1190.00	1249.50	1309.00	0.00000	0.000	1	0.00	0.00	248.08	10.02	-247.82	-16.39	0	0	0	0
20410	22091	0.000732	0.008146	0.07682	736.00	772.80	809.60	0.00000	0.000	1	0.00	0.00	222.58	77.27	-222.18	-80.64	0	0	0	0
20410	81878	0.000783	0.042278	0.00000	350.00	350.00	350.00	1.00000	0.000	1	0.00	0.00	-11.44	9.72	11.44	-9.62	0	0	0	0
20410	81878	0.000783	0.042278	0.00000	350.00	350.00	350.00	1.00000	0.000	1	0.00	0.00	-11.44	9.72	11.44	-9.62	0	0	0	0
20411	21191	0.000410	0.005419	0.08680	1251.00	1313.50	1376.10	0.00000	0.000	1	0.00	0.00	259.55	82.03	-259.26	-87.11	0	0	0	0
20411	21726	0.000051	0.000936	0.01750	1624.00	1705.20	1786.40	0.00000	0.000	1	0.00	0.00	157.66	172.05	-157.64	-173.38	0	0	0	0
20411	81880	0.000285	0.022767	0.00000	650.00	650.00	650.00	1.00000	0.000	1	0.00	0.00	108.98	36.68	-108.94	-33.79	0	0	0	0
20411	81880	0.000285	0.022767	0.00000	650.00	650.00	650.00	1.00000	0.000	1	0.00	0.00	108.98	36.68	-108.94	-33.79	0	0	0	0
20412	21238	0.000056	0.001078	0.01817	1624.00	1705.20	1786.40	0.00000	0.000	1	0.00	0.00	87.85	46.09	-87.84	-47.88	0	0	0	0
20412	21238	0.000056	0.001078	0.01817	1624.00	1705.20	1786.40	0.00000	0.000	1	0.00	0.00	87.79	46.10	-87.79	-47.89	0	0	0	0
20412	21239	0.000047	0.000794	0.01460	1536.00	1612.80	1689.60	0.00000	0.000	1	0.00	0.00	162.40	62.29	-162.38	-63.57	0	0	0	0
20412	81881	0.000329	0.024664	0.00000	600.00	600.00	600.00	1.00000	0.000	1	0.00	0.00	181.11	63.92	-180.99	-55.18	0	0	0	0
20412	81881	0.000329	0.024664	0.00000	600.00	600.00	600.00	1.00000	0.000	1	0.00	0.00	181.11	63.92	-180.99	-55.18	0	0	0	0
20413	20417	0.000004	0.000086	0.02971	3601.00	3781.10	3961.10	0.00000	0.000	1	0.00	0.00	-402.60	-37.78	402.60	34.82	0	0	0	0
20413	24882	0.000339	0.010448	5.58960	6811.00	7151.60	7492.10	0.00000	0.000	1	0.00	0.00	1001.70	-237.82	-998.43	-240.64	0	0	0	0
20413	81883	0.000169	0.013516	0.00000	1450.00	1450.00	1450.00	1.00000	0.000	1	0.00	0.00	207.24	6.51	-207.17	-0.93	0	0	0	0
20413	81883	0.000169	0.013516	0.00000	1450.00	1450.00	1450.00	1.00000	0.000	1	0.00	0.00	207.24	6.51	-207.17	-0.93	0	0	0	0
20413	81883	0.000169	0.013516	0.00000	1450.00	1450.00	1450.00	1.00000	0.000	1	0.00	0.00	207.24	6.51	-207.17	-0.93	0	0	0	0
20414	21132	0.000387	0.005262	0.05421	868.00	911.40	954.80	0.00000	0.000	1	0.00	0.00	147.00	145.20	-146.83	-148.34	0	0	0	0
20414	21540	0.000137	0.001505	0.01462	736.00	772.80	809.60	0.00000	0.000	1	0.00	0.00	366.55	309.50	-366.23	-307.51	0	0	0	0
20414	21570	0.000124	0.001358	0.01320	736.00	772.80	809.60	0.00000	0.000	1	0.00	0.00	90.16	37.61	-90.14	-38.81	0	0	0	0
20414	21591	0.000408	0.004705	0.04125	736.00	772.80	809.60	0.00000	0.000	1	0.00	0.00	316.32	145.64	-315.82	-144.05	0	0	0	0
20414	81886	0.000285	0.022767	0.00000	650.00	650.00	650.00	1.00000	0.000	1	0.00	0.00	113.88	51.63	-113.84	-48.09	0	0	0	0
20414	81886	0.000285	0.022767	0.00000	650.00	650.00	650.00	1.00000	0.000	1	0.00	0.00	113.88	51.63	-113.84	-48.09	0	0	0	0
20415	20428	0.000021	0.000254	0.00258	812.00	852.60	893.20	0.00000	0.000	1	0.00	0.00	-201.88	16.24	201.89	-16.41	0	0	0	0
20415	21992	0.000585	0.006657	0.06012	736.00	772.80	809.60	0.00000	0.000	1	0.00	0.00	207.21	35.27	-206.96	-38.66	0	0	0	0
20415	21995	0.000955	0.010483	0.10185	736.00	772.80	809.60	0.00000	0.000	1	0.00	0.00	88.23	26.92	-88.14	-36.59	0	0	0	0
81861	20415	0.002367	0.026380	0.24916	736.00	772.80	809.60	0.00000	0.000	1	0.00	0.00	10.99	-12.72	-10.98	-13.18	0	0	0	0
20415	81888	0.000208	0.015578	0.00000	950.00	950.00	950.00	1.00000	0.000	1	0.00	0.00	97.56	30.55	-97.54	-28.99	0	0	0	0
20415	81888	0.000208	0.015578	0.00000	950.00	950.00	950.00	1.00000	0.000	1	0.00	0.00	97.56	30.55	-97.54	-28.99	0	0	0	0
20416	81889	0.002136	0.083306	0.00000	150.00	150.00	150.00	1.00000	0.000	1	0.00	0.00	13.47	7.55	-13.47	-7.36	0	0	0	0
20416	81889	0.002136	0.083306	0.00000	150.00	150.00	150.00	1.00000	0.000	1	0.00	0.00	13.47	7.55	-13.47	-7.36	0	0	0	0
20416	82348	0.000556	0.003197	0.00091	205.00	215.20	225.50	0.00000	0.000	1	0.00	0.00	132.59	62.90	-132.48	-62.31	0	0	0	0
20417	21487	0.000328	0.008322	3.65450	5108.00	5363.40	5618.80	0.00000	0.000	1	0.00	0.00	700.73	-117.29	-699.16	-220.81	0	0	0	0
20417	27331	0.000473	0.010961	4.68880	4718.00	4953.90	5189.80	0.00000	0.000	1	0.00	0.00	-756.52	-197.50	759.13	-230.70	0	0	0	0
20417	81890	0.000148	0.011878	0.00000	1650.00	1650.00	1650.00	1.00000	0.000	1	0.00	0.00	247.77	7.97	-247.68	-0.96	0	0	0	0
20417	81890	0.000148	0.011878	0.00000	1650.00	1650.00	1650.00	1.00000	0.000	1	0.00	0.00	247.77	7.97	-247.68	-0.96	0	0	0	0
20417	81890	0.000148	0.011878	0.00000	1650.00	1650.00	1650.00	1.00000	0.000	1	0.00	0.00	247.77	7.97	-247.68	-0.96	0	0	0	0
20418	21238	0.000050	0.000533	0.00797	1097.00	1151.90	1206.70	0.00000	0.000	1	0.00	0.00	129.26	83.79	-129.24	-84.50	0	0	0	0
20418	21239	0.000068	0.000698	0.01097	1097.00	1151.90	1206.70	0.00000	0.000	1	0.00	0.00	147.21	61.81	-147.19	-62.78	0	0	0	0
20418	81893	0.002529	0.098634	0.00000	150.00	150.00	150.00	1.00000	0.000	1	0.00	0.00	0.00	0.00	0.00	0.00	0	0	0	0
20418	81893	0.002529	0.098634	0.00000	150.00	150.00	150.00	1.00000	0.000	1	0.00	0.00	0.00	0.00	0.00	0.00	0	0	0	0
20419	20751	0.000317	0.003481	0.03381	736.00	772.80	809.60	0.00000	0.000	1	0.00	0.00	106.11	31.47	-106.07	-34.57	0	0	0	0
20419	20752	0.000294	0.004158	0.03965	868.00	911.40	954.80	0.00000	0.000	1	0.00	0.00	98.55	30.09	-98.52	-33.78	0	0	0	0
20419	20766	0.000517	0.007337	0.06940	868.00	911.40	954.80	0.00000	0.000	1	0.00	0.00	83.10	21.85	-83.06	-28.52	0	0	0	0
20419	20910	0.000092	0.001027	0.00968	736.00	772.80	809.60	0.00000	0.000	1	0.00	0.00	117.11	65.81	-117.09	-66.64	0	0	0	0
20419	20913	0.000235	0.002714	0.02379	736.00	772.80	809.60	0.00000	0.000	1	0.00	0.00	167.62	62.09	-167.55	-63.73	0	0	0	0
20419	20924	0.000251	0.002791	0.02631	736.00	772.80	809.60	0.00000	0.000	1	0.00	0.00	13.16	31.29	-13.15	-33.99	0	0	0	0
20419	81894	0.000285	0.022767	0.00000	650.00	650.00	650.00	1.00000	0.000	1	0.00	0.00	4.45	3.08	-4.45	-3.07	0	0	0	0
20419	81894	0.000285	0.022767	0.00000	650.00	650.00	650.00	1.00000	0.000	1	0.00	0.00	4.45	3.08	-4.45	-3.07	0	0	0	0
20420	20713	0.000378	0.004877	0.04549	812.00	852.60	893.20	0.00000	0.000	1	0.00	0.00	112.55	10.71	-112.50	-14.82	0	0	0	0
20420	21685	0.000455	0.005254	0.04606	736.00	772.80	809.60	0.00000	0.000	1	0.00	0.00	-102.77	-1.12	102.82	-3.12	0	0	0	0
20420	81895	0.000529	0.036996	0.00000	400.00	400.00	400.00	1.00000	0.000	1	0.00	0.00	-4.89	-4.80	4.89	4.81	0	0	0	0
20420	81895	0.000529	0.036996	0.00000	400.00	400.00	400.00	1.00000	0.000	1	0.00	0.00	-4.89	-4.80	4.89	4.81	0	0	0	0
20421	21745	0.014922	0.060732	0.01480	159.00	166.90	174.90	0.00000	0.000	1	0.00	0.00	112.30	11.86	-110.47	-5.92	0	0	0	0
...